/*--------------------------------*- C++ -*----------------------------------*\
| =========                 |                                                 |
| \\      /  F ield         | OpenFOAM: The Open Source CFD Toolbox           |
|  \\    /   O peration     | Version:  2506                                  |
|   \\  /    A nd           | Website:  www.openfoam.com                      |
|    \\/     M anipulation  |                                                 |
\*---------------------------------------------------------------------------*/
FoamFile
{
    version     2.0;
    format      binary;
    arch        "LSB;label=32;scalar=64";
    class       polyBoundaryMesh;
    location    "constant/box_xmax/polyMesh";
    object      boundary;
}
// * * * * * * * * * * * * * * * * * * * * * * * * * * * * * * * * * * * * * //

3
(
    box_xmax
    {
        type            wall;
        inGroups        1(wall);
        nFaces          160;
        startFace       1920;
    }
    external_box_xmax
    {
        type            wall;
        inGroups        1(wall);
        nFaces          400;
        startFace       2080;
    }
    box_xmax_to_gas
    {
        type            mappedWall;
        inGroups        2(wall mappedPatch);
        nFaces          400;
        startFace       2480;
        sampleMode      nearestPatchFace;
        sampleRegion    gas;
        samplePatch     gas_to_box_xmax;
    }
)

// ************************************************************************* //
