/*--------------------------------*- C++ -*----------------------------------*\
| =========                 |                                                 |
| \\      /  F ield         | OpenFOAM: The Open Source CFD Toolbox           |
|  \\    /   O peration     | Version:  2412                                  |
|   \\  /    A nd           | Website:  www.openfoam.com                      |
|    \\/     M anipulation  |                                                 |
\*---------------------------------------------------------------------------*/
FoamFile
{
    version     2.0;
    format      ascii;
    class       dictionary;
    object      blockMeshDict;
}
// * * * * * * * * * * * * * * * * * * * * * * * * * * * * * * * * * * * * * //

convertToMeters 1;

// Placeholders pour les dimensions
xMin XXX;
xMax XXX;
yMin XXX;
yMax XXX;
zMin XXX;
zMax XXX;

// Placeholders pour le nombre de mailles
// Le script Python va remplacer "PasMailleX" par le NOMBRE de cellules calculé
lx PasMailleX;
ly PasMailleY;
lz PasMailleZ;

vertices
(
    ($xMin $yMin $zMin)
    ($xMax $yMin $zMin)
    ($xMax $yMax $zMin)
    ($xMin $yMax $zMin)
    ($xMin $yMin $zMax)
    ($xMax $yMin $zMax)
    ($xMax $yMax $zMax)
    ($xMin $yMax $zMax)
);

blocks
(
    // Ici on utilise les variables lx, ly, lz qui contiennent maintenant le nombre de cellules
    hex (0 1 2 3 4 5 6 7) ($lx $ly $lz) simpleGrading (1 1 1)
);

edges
(
);

defaultPatch
{
    type empty;
    name default;
}

boundary
(
);

// ************************************************************************* // 
