/*--------------------------------*- C++ -*----------------------------------*\
  =========                 |
  \\      /  F ield         | OpenFOAM: The Open Source CFD Toolbox
   \\    /   O peration     | Website:  https://openfoam.org
    \\  /    A nd           | Version:  7
     \\/     M anipulation  |
\*---------------------------------------------------------------------------*/
FoamFile
{
    version     2.0;
    format      ascii;
    class       dictionary;
    object      createBafflesDict;
}
// * * * * * * * * * * * * * * * * * * * * * * * * * * * * * * * * * * * * * //

internalFacesOnly true;

baffles
{
    baffles1
    {
        type        faceZone;
        zoneName    water_to_solid;

        patches
        {
            master
            {
                name        water_to_solid;
                type        mappedWall;
                sampleMode  nearestPatchFace;
                sampleRegion solid;
                samplePatch solid_to_water;
            }
            slave
            {
                name        solid_to_water;
                type        mappedWall;
                sampleMode  nearestPatchFace;
                sampleRegion water;
                samplePatch water_to_solid;
            }
        }
    }
}


// ************************************************************************* //
