/*--------------------------------*- C++ -*----------------------------------*\
| =========                 |                                                 |
| \\      /  F ield         | OpenFOAM: The Open Source CFD Toolbox           |
|  \\    /   O peration     | Version:  v2506                                 |
|   \\  /    A nd           | Website:  www.openfoam.com                      |
|    \\/     M anipulation  |                                                 |
\*---------------------------------------------------------------------------*/
FoamFile
{
    version     2.0;
    format      ascii;
    class       dictionary;
    object      surfaceFeatureExtractDict;
}
// * * * * * * * * * * * * * * * * * * * * * * * * * * * * * * * * * * * * * //

gas.stl
{
    extractionMethod    extractFromSurface;
    includedAngle       150;
    writeFeatureEdgeMesh    yes;
    writeObj                yes;
}

sphere.stl
{
    extractionMethod    extractFromSurface;
    includedAngle       150;
    writeFeatureEdgeMesh    yes;
    writeObj                yes;
}

box_xmin.stl
{
    extractionMethod    extractFromSurface;
    includedAngle       150;
    writeFeatureEdgeMesh    yes;
    writeObj                yes;
}

box_xmax.stl
{
    extractionMethod    extractFromSurface;
    includedAngle       150;
    writeFeatureEdgeMesh    yes;
    writeObj                yes;
}

external_box_xmin.stl
{
    extractionMethod    extractFromSurface;
    includedAngle       150;
    writeFeatureEdgeMesh    yes;
    writeObj                yes;
}

external_box_xmax.stl
{
    extractionMethod    extractFromSurface;
    includedAngle       150;
    writeFeatureEdgeMesh    yes;
    writeObj                yes;
}

// ************************************************************************* //
