/*--------------------------------*- C++ -*----------------------------------*\
| =========                 |                                                 |
| \\      /  F ield         | OpenFOAM: The Open Source CFD Toolbox           |
|  \\    /   O peration     | Version:  v2506                                 |
|   \\  /    A nd           | Website:  www.openfoam.com                      |
|    \\/     M anipulation  |                                                 |
\*---------------------------------------------------------------------------*/
FoamFile
{
    version     2.0;
    format      ascii;
    class       dictionary;
    object      probes;
}
// * * * * * * * * * * * * * * * * * * * * * * * * * * * * * * * * * * * * * //

// Sondes de température dans le gaz (fluide)
// Placées le long de l'axe X au centre (Y=Z=Center)

#includeEtc "caseDicts/postProcessing/probes/probes.cfg"

region gas;

fields (T);

writeControl    timeStep;
writeInterval   50;

probeLocations
(
    (X_PROBE_GAS_1 Y_PROBE_GAS Z_PROBE_GAS)  // Milieu gaz côté chaud (entre box_xmin et sphère)
    (X_PROBE_GAS_2 Y_PROBE_GAS Z_PROBE_GAS)  // Milieu gaz côté froid (entre sphère et box_xmax)
);

// ************************************************************************* //
