/*--------------------------------*- C++ -*----------------------------------*\
| =========                 |                                                 |
| \\      /  F ield         | OpenFOAM: The Open Source CFD Toolbox           |
|  \\    /   O peration     | Version:  2506                                  |
|   \\  /    A nd           | Website:  www.openfoam.com                      |
|    \\/     M anipulation  |                                                 |
\*---------------------------------------------------------------------------*/
FoamFile
{
    version     2.0;
    format      ascii;
    class       volScalarField;
    location    "0/box_xmin";
    object      T;
}
// * * * * * * * * * * * * * * * * * * * * * * * * * * * * * * * * * * * * * //

dimensions      [0 0 0 1 0 0 0];

internalField   uniform 285.65;

boundaryField
{
    #includeEtc "caseDicts/setConstraintTypes"

    box_xmin
    {
        type            zeroGradient;
    }
    external_box_xmin
    {
        type            fixedValue;
        value           uniform 298.15;  // 25°C - chaud
    }
    box_xmin_to_gas
    {
        type            compressible::turbulentTemperatureCoupledBaffleMixed;
        value           $internalField;
        kappaMethod     solidThermo;
        Tnbr            T;
    }
}

// ************************************************************************* //
